
---------- Begin Simulation Statistics ----------
sim_seconds                                  0.000824                       # Number of seconds simulated
sim_ticks                                   824292500                       # Number of ticks simulated
final_tick                                  824292500                       # Number of ticks from beginning of simulation (restored from checkpoints and never reset)
sim_freq                                 1000000000000                       # Frequency of simulated ticks
host_inst_rate                                 225520                       # Simulator instruction rate (inst/s)
host_op_rate                                   380096                       # Simulator op (including micro ops) rate (op/s)
host_tick_rate                               61519130                       # Simulator tick rate (ticks/s)
host_mem_usage                                 649480                       # Number of bytes of host memory used
host_seconds                                    13.40                       # Real time elapsed on the host
sim_insts                                     3021710                       # Number of instructions simulated
sim_ops                                       5092876                       # Number of ops (including micro ops) simulated
system.clk_domain.voltage_domain.voltage            1                       # Voltage in Volts
system.clk_domain.clock                           500                       # Clock period in ticks
system.mem_ctrl.pwrStateResidencyTicks::UNDEFINED    824292500                       # Cumulative time (in ticks) in various power states
system.mem_ctrl.bytes_read::cpu.inst            33344                       # Number of bytes read from this memory
system.mem_ctrl.bytes_read::cpu.data           143552                       # Number of bytes read from this memory
system.mem_ctrl.bytes_read::total              176896                       # Number of bytes read from this memory
system.mem_ctrl.bytes_inst_read::cpu.inst        33344                       # Number of instructions bytes read from this memory
system.mem_ctrl.bytes_inst_read::total          33344                       # Number of instructions bytes read from this memory
system.mem_ctrl.num_reads::cpu.inst               521                       # Number of read requests responded to by this memory
system.mem_ctrl.num_reads::cpu.data              2243                       # Number of read requests responded to by this memory
system.mem_ctrl.num_reads::total                 2764                       # Number of read requests responded to by this memory
system.mem_ctrl.bw_read::cpu.inst            40451660                       # Total read bandwidth from this memory (bytes/s)
system.mem_ctrl.bw_read::cpu.data           174151773                       # Total read bandwidth from this memory (bytes/s)
system.mem_ctrl.bw_read::total              214603433                       # Total read bandwidth from this memory (bytes/s)
system.mem_ctrl.bw_inst_read::cpu.inst       40451660                       # Instruction read bandwidth from this memory (bytes/s)
system.mem_ctrl.bw_inst_read::total          40451660                       # Instruction read bandwidth from this memory (bytes/s)
system.mem_ctrl.bw_total::cpu.inst           40451660                       # Total bandwidth to/from this memory (bytes/s)
system.mem_ctrl.bw_total::cpu.data          174151773                       # Total bandwidth to/from this memory (bytes/s)
system.mem_ctrl.bw_total::total             214603433                       # Total bandwidth to/from this memory (bytes/s)
system.mem_ctrl.readReqs                         2764                       # Number of read requests accepted
system.mem_ctrl.writeReqs                           0                       # Number of write requests accepted
system.mem_ctrl.readBursts                       2764                       # Number of DRAM read bursts, including those serviced by the write queue
system.mem_ctrl.writeBursts                         0                       # Number of DRAM write bursts, including those merged in the write queue
system.mem_ctrl.bytesReadDRAM                  176896                       # Total number of bytes read from DRAM
system.mem_ctrl.bytesReadWrQ                        0                       # Total number of bytes read from write queue
system.mem_ctrl.bytesWritten                        0                       # Total number of bytes written to DRAM
system.mem_ctrl.bytesReadSys                   176896                       # Total read bytes from the system interface side
system.mem_ctrl.bytesWrittenSys                     0                       # Total written bytes from the system interface side
system.mem_ctrl.servicedByWrQ                       0                       # Number of DRAM read bursts serviced by the write queue
system.mem_ctrl.mergedWrBursts                      0                       # Number of DRAM write bursts merged with an existing one
system.mem_ctrl.neitherReadNorWriteReqs             0                       # Number of requests that are neither read nor write
system.mem_ctrl.perBankRdBursts::0                207                       # Per bank write bursts
system.mem_ctrl.perBankRdBursts::1                188                       # Per bank write bursts
system.mem_ctrl.perBankRdBursts::2                171                       # Per bank write bursts
system.mem_ctrl.perBankRdBursts::3                202                       # Per bank write bursts
system.mem_ctrl.perBankRdBursts::4                165                       # Per bank write bursts
system.mem_ctrl.perBankRdBursts::5                129                       # Per bank write bursts
system.mem_ctrl.perBankRdBursts::6                136                       # Per bank write bursts
system.mem_ctrl.perBankRdBursts::7                164                       # Per bank write bursts
system.mem_ctrl.perBankRdBursts::8                191                       # Per bank write bursts
system.mem_ctrl.perBankRdBursts::9                169                       # Per bank write bursts
system.mem_ctrl.perBankRdBursts::10               163                       # Per bank write bursts
system.mem_ctrl.perBankRdBursts::11               185                       # Per bank write bursts
system.mem_ctrl.perBankRdBursts::12               175                       # Per bank write bursts
system.mem_ctrl.perBankRdBursts::13               151                       # Per bank write bursts
system.mem_ctrl.perBankRdBursts::14               171                       # Per bank write bursts
system.mem_ctrl.perBankRdBursts::15               197                       # Per bank write bursts
system.mem_ctrl.perBankWrBursts::0                  0                       # Per bank write bursts
system.mem_ctrl.perBankWrBursts::1                  0                       # Per bank write bursts
system.mem_ctrl.perBankWrBursts::2                  0                       # Per bank write bursts
system.mem_ctrl.perBankWrBursts::3                  0                       # Per bank write bursts
system.mem_ctrl.perBankWrBursts::4                  0                       # Per bank write bursts
system.mem_ctrl.perBankWrBursts::5                  0                       # Per bank write bursts
system.mem_ctrl.perBankWrBursts::6                  0                       # Per bank write bursts
system.mem_ctrl.perBankWrBursts::7                  0                       # Per bank write bursts
system.mem_ctrl.perBankWrBursts::8                  0                       # Per bank write bursts
system.mem_ctrl.perBankWrBursts::9                  0                       # Per bank write bursts
system.mem_ctrl.perBankWrBursts::10                 0                       # Per bank write bursts
system.mem_ctrl.perBankWrBursts::11                 0                       # Per bank write bursts
system.mem_ctrl.perBankWrBursts::12                 0                       # Per bank write bursts
system.mem_ctrl.perBankWrBursts::13                 0                       # Per bank write bursts
system.mem_ctrl.perBankWrBursts::14                 0                       # Per bank write bursts
system.mem_ctrl.perBankWrBursts::15                 0                       # Per bank write bursts
system.mem_ctrl.numRdRetry                          0                       # Number of times read queue was full causing retry
system.mem_ctrl.numWrRetry                          0                       # Number of times write queue was full causing retry
system.mem_ctrl.totGap                      824214000                       # Total gap between requests
system.mem_ctrl.readPktSize::0                      0                       # Read request sizes (log2)
system.mem_ctrl.readPktSize::1                      0                       # Read request sizes (log2)
system.mem_ctrl.readPktSize::2                      0                       # Read request sizes (log2)
system.mem_ctrl.readPktSize::3                      0                       # Read request sizes (log2)
system.mem_ctrl.readPktSize::4                      0                       # Read request sizes (log2)
system.mem_ctrl.readPktSize::5                      0                       # Read request sizes (log2)
system.mem_ctrl.readPktSize::6                   2764                       # Read request sizes (log2)
system.mem_ctrl.writePktSize::0                     0                       # Write request sizes (log2)
system.mem_ctrl.writePktSize::1                     0                       # Write request sizes (log2)
system.mem_ctrl.writePktSize::2                     0                       # Write request sizes (log2)
system.mem_ctrl.writePktSize::3                     0                       # Write request sizes (log2)
system.mem_ctrl.writePktSize::4                     0                       # Write request sizes (log2)
system.mem_ctrl.writePktSize::5                     0                       # Write request sizes (log2)
system.mem_ctrl.writePktSize::6                     0                       # Write request sizes (log2)
system.mem_ctrl.rdQLenPdf::0                     2397                       # What read queue length does an incoming req see
system.mem_ctrl.rdQLenPdf::1                      243                       # What read queue length does an incoming req see
system.mem_ctrl.rdQLenPdf::2                       87                       # What read queue length does an incoming req see
system.mem_ctrl.rdQLenPdf::3                       27                       # What read queue length does an incoming req see
system.mem_ctrl.rdQLenPdf::4                        9                       # What read queue length does an incoming req see
system.mem_ctrl.rdQLenPdf::5                        1                       # What read queue length does an incoming req see
system.mem_ctrl.rdQLenPdf::6                        0                       # What read queue length does an incoming req see
system.mem_ctrl.rdQLenPdf::7                        0                       # What read queue length does an incoming req see
system.mem_ctrl.rdQLenPdf::8                        0                       # What read queue length does an incoming req see
system.mem_ctrl.rdQLenPdf::9                        0                       # What read queue length does an incoming req see
system.mem_ctrl.rdQLenPdf::10                       0                       # What read queue length does an incoming req see
system.mem_ctrl.rdQLenPdf::11                       0                       # What read queue length does an incoming req see
system.mem_ctrl.rdQLenPdf::12                       0                       # What read queue length does an incoming req see
system.mem_ctrl.rdQLenPdf::13                       0                       # What read queue length does an incoming req see
system.mem_ctrl.rdQLenPdf::14                       0                       # What read queue length does an incoming req see
system.mem_ctrl.rdQLenPdf::15                       0                       # What read queue length does an incoming req see
system.mem_ctrl.rdQLenPdf::16                       0                       # What read queue length does an incoming req see
system.mem_ctrl.rdQLenPdf::17                       0                       # What read queue length does an incoming req see
system.mem_ctrl.rdQLenPdf::18                       0                       # What read queue length does an incoming req see
system.mem_ctrl.rdQLenPdf::19                       0                       # What read queue length does an incoming req see
system.mem_ctrl.rdQLenPdf::20                       0                       # What read queue length does an incoming req see
system.mem_ctrl.rdQLenPdf::21                       0                       # What read queue length does an incoming req see
system.mem_ctrl.rdQLenPdf::22                       0                       # What read queue length does an incoming req see
system.mem_ctrl.rdQLenPdf::23                       0                       # What read queue length does an incoming req see
system.mem_ctrl.rdQLenPdf::24                       0                       # What read queue length does an incoming req see
system.mem_ctrl.rdQLenPdf::25                       0                       # What read queue length does an incoming req see
system.mem_ctrl.rdQLenPdf::26                       0                       # What read queue length does an incoming req see
system.mem_ctrl.rdQLenPdf::27                       0                       # What read queue length does an incoming req see
system.mem_ctrl.rdQLenPdf::28                       0                       # What read queue length does an incoming req see
system.mem_ctrl.rdQLenPdf::29                       0                       # What read queue length does an incoming req see
system.mem_ctrl.rdQLenPdf::30                       0                       # What read queue length does an incoming req see
system.mem_ctrl.rdQLenPdf::31                       0                       # What read queue length does an incoming req see
system.mem_ctrl.wrQLenPdf::0                        0                       # What write queue length does an incoming req see
system.mem_ctrl.wrQLenPdf::1                        0                       # What write queue length does an incoming req see
system.mem_ctrl.wrQLenPdf::2                        0                       # What write queue length does an incoming req see
system.mem_ctrl.wrQLenPdf::3                        0                       # What write queue length does an incoming req see
system.mem_ctrl.wrQLenPdf::4                        0                       # What write queue length does an incoming req see
system.mem_ctrl.wrQLenPdf::5                        0                       # What write queue length does an incoming req see
system.mem_ctrl.wrQLenPdf::6                        0                       # What write queue length does an incoming req see
system.mem_ctrl.wrQLenPdf::7                        0                       # What write queue length does an incoming req see
system.mem_ctrl.wrQLenPdf::8                        0                       # What write queue length does an incoming req see
system.mem_ctrl.wrQLenPdf::9                        0                       # What write queue length does an incoming req see
system.mem_ctrl.wrQLenPdf::10                       0                       # What write queue length does an incoming req see
system.mem_ctrl.wrQLenPdf::11                       0                       # What write queue length does an incoming req see
system.mem_ctrl.wrQLenPdf::12                       0                       # What write queue length does an incoming req see
system.mem_ctrl.wrQLenPdf::13                       0                       # What write queue length does an incoming req see
system.mem_ctrl.wrQLenPdf::14                       0                       # What write queue length does an incoming req see
system.mem_ctrl.wrQLenPdf::15                       0                       # What write queue length does an incoming req see
system.mem_ctrl.wrQLenPdf::16                       0                       # What write queue length does an incoming req see
system.mem_ctrl.wrQLenPdf::17                       0                       # What write queue length does an incoming req see
system.mem_ctrl.wrQLenPdf::18                       0                       # What write queue length does an incoming req see
system.mem_ctrl.wrQLenPdf::19                       0                       # What write queue length does an incoming req see
system.mem_ctrl.wrQLenPdf::20                       0                       # What write queue length does an incoming req see
system.mem_ctrl.wrQLenPdf::21                       0                       # What write queue length does an incoming req see
system.mem_ctrl.wrQLenPdf::22                       0                       # What write queue length does an incoming req see
system.mem_ctrl.wrQLenPdf::23                       0                       # What write queue length does an incoming req see
system.mem_ctrl.wrQLenPdf::24                       0                       # What write queue length does an incoming req see
system.mem_ctrl.wrQLenPdf::25                       0                       # What write queue length does an incoming req see
system.mem_ctrl.wrQLenPdf::26                       0                       # What write queue length does an incoming req see
system.mem_ctrl.wrQLenPdf::27                       0                       # What write queue length does an incoming req see
system.mem_ctrl.wrQLenPdf::28                       0                       # What write queue length does an incoming req see
system.mem_ctrl.wrQLenPdf::29                       0                       # What write queue length does an incoming req see
system.mem_ctrl.wrQLenPdf::30                       0                       # What write queue length does an incoming req see
system.mem_ctrl.wrQLenPdf::31                       0                       # What write queue length does an incoming req see
system.mem_ctrl.wrQLenPdf::32                       0                       # What write queue length does an incoming req see
system.mem_ctrl.wrQLenPdf::33                       0                       # What write queue length does an incoming req see
system.mem_ctrl.wrQLenPdf::34                       0                       # What write queue length does an incoming req see
system.mem_ctrl.wrQLenPdf::35                       0                       # What write queue length does an incoming req see
system.mem_ctrl.wrQLenPdf::36                       0                       # What write queue length does an incoming req see
system.mem_ctrl.wrQLenPdf::37                       0                       # What write queue length does an incoming req see
system.mem_ctrl.wrQLenPdf::38                       0                       # What write queue length does an incoming req see
system.mem_ctrl.wrQLenPdf::39                       0                       # What write queue length does an incoming req see
system.mem_ctrl.wrQLenPdf::40                       0                       # What write queue length does an incoming req see
system.mem_ctrl.wrQLenPdf::41                       0                       # What write queue length does an incoming req see
system.mem_ctrl.wrQLenPdf::42                       0                       # What write queue length does an incoming req see
system.mem_ctrl.wrQLenPdf::43                       0                       # What write queue length does an incoming req see
system.mem_ctrl.wrQLenPdf::44                       0                       # What write queue length does an incoming req see
system.mem_ctrl.wrQLenPdf::45                       0                       # What write queue length does an incoming req see
system.mem_ctrl.wrQLenPdf::46                       0                       # What write queue length does an incoming req see
system.mem_ctrl.wrQLenPdf::47                       0                       # What write queue length does an incoming req see
system.mem_ctrl.wrQLenPdf::48                       0                       # What write queue length does an incoming req see
system.mem_ctrl.wrQLenPdf::49                       0                       # What write queue length does an incoming req see
system.mem_ctrl.wrQLenPdf::50                       0                       # What write queue length does an incoming req see
system.mem_ctrl.wrQLenPdf::51                       0                       # What write queue length does an incoming req see
system.mem_ctrl.wrQLenPdf::52                       0                       # What write queue length does an incoming req see
system.mem_ctrl.wrQLenPdf::53                       0                       # What write queue length does an incoming req see
system.mem_ctrl.wrQLenPdf::54                       0                       # What write queue length does an incoming req see
system.mem_ctrl.wrQLenPdf::55                       0                       # What write queue length does an incoming req see
system.mem_ctrl.wrQLenPdf::56                       0                       # What write queue length does an incoming req see
system.mem_ctrl.wrQLenPdf::57                       0                       # What write queue length does an incoming req see
system.mem_ctrl.wrQLenPdf::58                       0                       # What write queue length does an incoming req see
system.mem_ctrl.wrQLenPdf::59                       0                       # What write queue length does an incoming req see
system.mem_ctrl.wrQLenPdf::60                       0                       # What write queue length does an incoming req see
system.mem_ctrl.wrQLenPdf::61                       0                       # What write queue length does an incoming req see
system.mem_ctrl.wrQLenPdf::62                       0                       # What write queue length does an incoming req see
system.mem_ctrl.wrQLenPdf::63                       0                       # What write queue length does an incoming req see
system.mem_ctrl.bytesPerActivate::samples          318                       # Bytes accessed per row activation
system.mem_ctrl.bytesPerActivate::mean     548.830189                       # Bytes accessed per row activation
system.mem_ctrl.bytesPerActivate::gmean    342.705596                       # Bytes accessed per row activation
system.mem_ctrl.bytesPerActivate::stdev    412.137388                       # Bytes accessed per row activation
system.mem_ctrl.bytesPerActivate::0-127            64     20.13%     20.13% # Bytes accessed per row activation
system.mem_ctrl.bytesPerActivate::128-255           57     17.92%     38.05% # Bytes accessed per row activation
system.mem_ctrl.bytesPerActivate::256-383           25      7.86%     45.91% # Bytes accessed per row activation
system.mem_ctrl.bytesPerActivate::384-511           12      3.77%     49.69% # Bytes accessed per row activation
system.mem_ctrl.bytesPerActivate::512-639           12      3.77%     53.46% # Bytes accessed per row activation
system.mem_ctrl.bytesPerActivate::640-767            9      2.83%     56.29% # Bytes accessed per row activation
system.mem_ctrl.bytesPerActivate::768-895           13      4.09%     60.38% # Bytes accessed per row activation
system.mem_ctrl.bytesPerActivate::896-1023           22      6.92%     67.30% # Bytes accessed per row activation
system.mem_ctrl.bytesPerActivate::1024-1151          104     32.70%    100.00% # Bytes accessed per row activation
system.mem_ctrl.bytesPerActivate::total           318                       # Bytes accessed per row activation
system.mem_ctrl.totQLat                      41269000                       # Total ticks spent queuing
system.mem_ctrl.totMemAccLat                 93094000                       # Total ticks spent from burst creation until serviced by the DRAM
system.mem_ctrl.totBusLat                    13820000                       # Total ticks spent in databus transfers
system.mem_ctrl.avgQLat                      14930.90                       # Average queueing delay per DRAM burst
system.mem_ctrl.avgBusLat                     5000.00                       # Average bus latency per DRAM burst
system.mem_ctrl.avgMemAccLat                 33680.90                       # Average memory access latency per DRAM burst
system.mem_ctrl.avgRdBW                        214.60                       # Average DRAM read bandwidth in MiByte/s
system.mem_ctrl.avgWrBW                          0.00                       # Average achieved write bandwidth in MiByte/s
system.mem_ctrl.avgRdBWSys                     214.60                       # Average system read bandwidth in MiByte/s
system.mem_ctrl.avgWrBWSys                       0.00                       # Average system write bandwidth in MiByte/s
system.mem_ctrl.peakBW                       12800.00                       # Theoretical peak bandwidth in MiByte/s
system.mem_ctrl.busUtil                          1.68                       # Data bus utilization in percentage
system.mem_ctrl.busUtilRead                      1.68                       # Data bus utilization in percentage for reads
system.mem_ctrl.busUtilWrite                     0.00                       # Data bus utilization in percentage for writes
system.mem_ctrl.avgRdQLen                        1.79                       # Average read queue length when enqueuing
system.mem_ctrl.avgWrQLen                        0.00                       # Average write queue length when enqueuing
system.mem_ctrl.readRowHits                      2438                       # Number of row buffer hits during reads
system.mem_ctrl.writeRowHits                        0                       # Number of row buffer hits during writes
system.mem_ctrl.readRowHitRate                  88.21                       # Row buffer hit rate for reads
system.mem_ctrl.writeRowHitRate                   nan                       # Row buffer hit rate for writes
system.mem_ctrl.avgGap                      298196.09                       # Average gap between requests
system.mem_ctrl.pageHitRate                     88.21                       # Row buffer hit rate, read and write combined
system.mem_ctrl_0.actEnergy                   1185240                       # Energy for activate commands per rank (pJ)
system.mem_ctrl_0.preEnergy                    610995                       # Energy for precharge commands per rank (pJ)
system.mem_ctrl_0.readEnergy                  9724680                       # Energy for read commands per rank (pJ)
system.mem_ctrl_0.writeEnergy                       0                       # Energy for write commands per rank (pJ)
system.mem_ctrl_0.refreshEnergy          14136720.000000                       # Energy for refresh commands per rank (pJ)
system.mem_ctrl_0.actBackEnergy              18456600                       # Energy for active background per rank (pJ)
system.mem_ctrl_0.preBackEnergy                737760                       # Energy for precharge background per rank (pJ)
system.mem_ctrl_0.actPowerDownEnergy         48892890                       # Energy for active power-down per rank (pJ)
system.mem_ctrl_0.prePowerDownEnergy          7232640                       # Energy for precharge power-down per rank (pJ)
system.mem_ctrl_0.selfRefreshEnergy         158506080                       # Energy for self refresh per rank (pJ)
system.mem_ctrl_0.totalEnergy               259483605                       # Total energy per rank (pJ)
system.mem_ctrl_0.averagePower             314.795543                       # Core power per rank (mW)
system.mem_ctrl_0.totalIdleTime             781803750                       # Total Idle time Per DRAM Rank
system.mem_ctrl_0.memoryStateTime::IDLE        833500                       # Time in different power states
system.mem_ctrl_0.memoryStateTime::REF        5992000                       # Time in different power states
system.mem_ctrl_0.memoryStateTime::SREF     655838750                       # Time in different power states
system.mem_ctrl_0.memoryStateTime::PRE_PDN     18833500                       # Time in different power states
system.mem_ctrl_0.memoryStateTime::ACT       35621000                       # Time in different power states
system.mem_ctrl_0.memoryStateTime::ACT_PDN    107173750                       # Time in different power states
system.mem_ctrl_1.actEnergy                   1142400                       # Energy for activate commands per rank (pJ)
system.mem_ctrl_1.preEnergy                    595815                       # Energy for precharge commands per rank (pJ)
system.mem_ctrl_1.readEnergy                 10010280                       # Energy for read commands per rank (pJ)
system.mem_ctrl_1.writeEnergy                       0                       # Energy for write commands per rank (pJ)
system.mem_ctrl_1.refreshEnergy          28888080.000000                       # Energy for refresh commands per rank (pJ)
system.mem_ctrl_1.actBackEnergy              22028220                       # Energy for active background per rank (pJ)
system.mem_ctrl_1.preBackEnergy               1655520                       # Energy for precharge background per rank (pJ)
system.mem_ctrl_1.actPowerDownEnergy         75976440                       # Energy for active power-down per rank (pJ)
system.mem_ctrl_1.prePowerDownEnergy         29381280                       # Energy for precharge power-down per rank (pJ)
system.mem_ctrl_1.selfRefreshEnergy         132373200                       # Energy for self refresh per rank (pJ)
system.mem_ctrl_1.totalEnergy               302051235                       # Total energy per rank (pJ)
system.mem_ctrl_1.averagePower             366.436957                       # Core power per rank (mW)
system.mem_ctrl_1.totalIdleTime             771611000                       # Total Idle time Per DRAM Rank
system.mem_ctrl_1.memoryStateTime::IDLE       2995500                       # Time in different power states
system.mem_ctrl_1.memoryStateTime::REF       12280000                       # Time in different power states
system.mem_ctrl_1.memoryStateTime::SREF     528543500                       # Time in different power states
system.mem_ctrl_1.memoryStateTime::PRE_PDN     76509750                       # Time in different power states
system.mem_ctrl_1.memoryStateTime::ACT       37343250                       # Time in different power states
system.mem_ctrl_1.memoryStateTime::ACT_PDN    166620500                       # Time in different power states
system.pwrStateResidencyTicks::UNDEFINED    824292500                       # Cumulative time (in ticks) in various power states
system.cpu.branchPred.lookups                  427823                       # Number of BP lookups
system.cpu.branchPred.condPredicted            427823                       # Number of conditional branches predicted
system.cpu.branchPred.condIncorrect              7849                       # Number of conditional branches incorrect
system.cpu.branchPred.BTBLookups               422131                       # Number of BTB lookups
system.cpu.branchPred.BTBHits                       0                       # Number of BTB hits
system.cpu.branchPred.BTBCorrect                    0                       # Number of correct BTB predictions (this stat may not work properly.
system.cpu.branchPred.BTBHitPct              0.000000                       # BTB Hit Percentage
system.cpu.branchPred.usedRAS                     108                       # Number of times the RAS was used to get a target.
system.cpu.branchPred.RASInCorrect                 42                       # Number of incorrect RAS predictions.
system.cpu.branchPred.indirectLookups          422131                       # Number of indirect predictor lookups.
system.cpu.branchPred.indirectHits             421241                       # Number of indirect target hits.
system.cpu.branchPred.indirectMisses              890                       # Number of indirect misses.
system.cpu.branchPredindirectMispredicted          255                       # Number of mispredicted indirect branches.
system.cpu.dtb.walker.pwrStateResidencyTicks::UNDEFINED    824292500                       # Cumulative time (in ticks) in various power states
system.cpu.dtb.rdAccesses                      998394                       # TLB accesses on read requests
system.cpu.dtb.wrAccesses                      405504                       # TLB accesses on write requests
system.cpu.dtb.rdMisses                           122                       # TLB misses on read requests
system.cpu.dtb.wrMisses                            54                       # TLB misses on write requests
system.cpu.apic_clk_domain.clock                 8000                       # Clock period in ticks
system.cpu.interrupts.pwrStateResidencyTicks::UNDEFINED    824292500                       # Cumulative time (in ticks) in various power states
system.cpu.itb.walker.pwrStateResidencyTicks::UNDEFINED    824292500                       # Cumulative time (in ticks) in various power states
system.cpu.itb.rdAccesses                           0                       # TLB accesses on read requests
system.cpu.itb.wrAccesses                      405601                       # TLB accesses on write requests
system.cpu.itb.rdMisses                             0                       # TLB misses on read requests
system.cpu.itb.wrMisses                           149                       # TLB misses on write requests
system.cpu.workload.numSyscalls                    10                       # Number of system calls
system.cpu.pwrStateResidencyTicks::ON       824292500                       # Cumulative time (in ticks) in various power states
system.cpu.numCycles                          1648586                       # number of cpu cycles simulated
system.cpu.numWorkItemsStarted                      0                       # number of work items this cpu started
system.cpu.numWorkItemsCompleted                    0                       # number of work items this cpu completed
system.cpu.fetch.icacheStallCycles             421175                       # Number of cycles fetch is stalled on an Icache miss
system.cpu.fetch.Insts                        3188284                       # Number of instructions fetch has processed
system.cpu.fetch.Branches                      427823                       # Number of branches that fetch encountered
system.cpu.fetch.predictedBranches             421349                       # Number of branches that fetch has predicted taken
system.cpu.fetch.Cycles                       1187649                       # Number of cycles fetch has run and was not squashing or blocked
system.cpu.fetch.SquashCycles                   15950                       # Number of cycles fetch has spent squashing
system.cpu.fetch.MiscStallCycles                  157                       # Number of cycles fetch has spent waiting on interrupts, or bad addresses, or out of MSHRs
system.cpu.fetch.PendingTrapStallCycles           602                       # Number of stall cycles due to pending traps
system.cpu.fetch.PendingQuiesceStallCycles           14                       # Number of stall cycles due to pending quiesce instructions
system.cpu.fetch.IcacheWaitRetryStallCycles          201                       # Number of stall cycles due to full MSHR
system.cpu.fetch.CacheLines                    405496                       # Number of cache lines fetched
system.cpu.fetch.IcacheSquashes                   695                       # Number of outstanding Icache misses that were squashed
system.cpu.fetch.rateDist::samples            1617773                       # Number of instructions fetched each cycle (Total)
system.cpu.fetch.rateDist::mean              3.324741                       # Number of instructions fetched each cycle (Total)
system.cpu.fetch.rateDist::stdev             3.286234                       # Number of instructions fetched each cycle (Total)
system.cpu.fetch.rateDist::underflows               0      0.00%      0.00% # Number of instructions fetched each cycle (Total)
system.cpu.fetch.rateDist::0                   754438     46.63%     46.63% # Number of instructions fetched each cycle (Total)
system.cpu.fetch.rateDist::1                     7726      0.48%     47.11% # Number of instructions fetched each cycle (Total)
system.cpu.fetch.rateDist::2                     1482      0.09%     47.20% # Number of instructions fetched each cycle (Total)
system.cpu.fetch.rateDist::3                     9158      0.57%     47.77% # Number of instructions fetched each cycle (Total)
system.cpu.fetch.rateDist::4                     8590      0.53%     48.30% # Number of instructions fetched each cycle (Total)
system.cpu.fetch.rateDist::5                   392902     24.29%     72.59% # Number of instructions fetched each cycle (Total)
system.cpu.fetch.rateDist::6                     3789      0.23%     72.82% # Number of instructions fetched each cycle (Total)
system.cpu.fetch.rateDist::7                   198596     12.28%     85.10% # Number of instructions fetched each cycle (Total)
system.cpu.fetch.rateDist::8                   241092     14.90%    100.00% # Number of instructions fetched each cycle (Total)
system.cpu.fetch.rateDist::overflows                0      0.00%    100.00% # Number of instructions fetched each cycle (Total)
system.cpu.fetch.rateDist::min_value                0                       # Number of instructions fetched each cycle (Total)
system.cpu.fetch.rateDist::max_value                8                       # Number of instructions fetched each cycle (Total)
system.cpu.fetch.rateDist::total              1617773                       # Number of instructions fetched each cycle (Total)
system.cpu.fetch.branchRate                  0.259509                       # Number of branch fetches per cycle
system.cpu.fetch.rate                        1.933951                       # Number of inst fetches per cycle
system.cpu.decode.IdleCycles                   411052                       # Number of cycles decode is idle
system.cpu.decode.BlockedCycles                346248                       # Number of cycles decode is blocked
system.cpu.decode.RunCycles                    834819                       # Number of cycles decode is running
system.cpu.decode.UnblockCycles                 17679                       # Number of cycles decode is unblocking
system.cpu.decode.SquashCycles                   7975                       # Number of cycles decode is squashing
system.cpu.decode.DecodedInsts                5348049                       # Number of instructions handled by decode
system.cpu.rename.SquashCycles                   7975                       # Number of cycles rename is squashing
system.cpu.rename.IdleCycles                   422200                       # Number of cycles rename is idle
system.cpu.rename.BlockCycles                   59998                       # Number of cycles rename is blocking
system.cpu.rename.serializeStallCycles           1540                       # count of cycles rename stalled for serializing inst
system.cpu.rename.RunCycles                    837547                       # Number of cycles rename is running
system.cpu.rename.UnblockCycles                288513                       # Number of cycles rename is unblocking
system.cpu.rename.RenamedInsts                5294449                       # Number of instructions processed by rename
system.cpu.rename.ROBFullEvents                   545                       # Number of times rename has blocked due to ROB full
system.cpu.rename.IQFullEvents                  16532                       # Number of times rename has blocked due to IQ full
system.cpu.rename.LQFullEvents                    793                       # Number of times rename has blocked due to LQ full
system.cpu.rename.SQFullEvents                 266546                       # Number of times rename has blocked due to SQ full
system.cpu.rename.RenamedOperands             6122284                       # Number of destination operands rename has renamed
system.cpu.rename.RenameLookups              12887830                       # Number of register rename lookups that rename has made
system.cpu.rename.int_rename_lookups          5411824                       # Number of integer rename lookups
system.cpu.rename.fp_rename_lookups           3120453                       # Number of floating rename lookups
system.cpu.rename.CommittedMaps               5890967                       # Number of HB maps that are committed
system.cpu.rename.UndoneMaps                   231317                       # Number of HB maps that are undone due to squashing
system.cpu.rename.serializingInsts                 35                       # count of serializing insts renamed
system.cpu.rename.tempSerializingInsts             31                       # count of temporary serializing insts renamed
system.cpu.rename.skidInsts                     87085                       # count of insts added to the skid buffer
system.cpu.memDep0.insertedLoads               992262                       # Number of loads inserted to the mem dependence unit.
system.cpu.memDep0.insertedStores              413319                       # Number of stores inserted to the mem dependence unit.
system.cpu.memDep0.conflictingLoads               520                       # Number of conflicting loads.
system.cpu.memDep0.conflictingStores           184991                       # Number of conflicting stores.
system.cpu.iq.iqInstsAdded                    5227530                       # Number of instructions added to the IQ (excludes non-spec)
system.cpu.iq.iqNonSpecInstsAdded                 296                       # Number of non-speculative instructions added to the IQ
system.cpu.iq.iqInstsIssued                   5193551                       # Number of instructions issued
system.cpu.iq.iqSquashedInstsIssued               435                       # Number of squashed instructions issued
system.cpu.iq.iqSquashedInstsExamined          134949                       # Number of squashed instructions iterated over during squash; mainly for profiling
system.cpu.iq.iqSquashedOperandsExamined       229331                       # Number of squashed operands that are examined and possibly removed from graph
system.cpu.iq.iqSquashedNonSpecRemoved            286                       # Number of squashed non-spec instructions that were removed
system.cpu.iq.issued_per_cycle::samples       1617773                       # Number of insts issued each cycle
system.cpu.iq.issued_per_cycle::mean         3.210309                       # Number of insts issued each cycle
system.cpu.iq.issued_per_cycle::stdev        2.653255                       # Number of insts issued each cycle
system.cpu.iq.issued_per_cycle::underflows            0      0.00%      0.00% # Number of insts issued each cycle
system.cpu.iq.issued_per_cycle::0              331607     20.50%     20.50% # Number of insts issued each cycle
system.cpu.iq.issued_per_cycle::1              399072     24.67%     45.17% # Number of insts issued each cycle
system.cpu.iq.issued_per_cycle::2               42231      2.61%     47.78% # Number of insts issued each cycle
system.cpu.iq.issued_per_cycle::3               40015      2.47%     50.25% # Number of insts issued each cycle
system.cpu.iq.issued_per_cycle::4              200233     12.38%     62.63% # Number of insts issued each cycle
system.cpu.iq.issued_per_cycle::5               29601      1.83%     64.46% # Number of insts issued each cycle
system.cpu.iq.issued_per_cycle::6              387503     23.95%     88.41% # Number of insts issued each cycle
system.cpu.iq.issued_per_cycle::7              184071     11.38%     99.79% # Number of insts issued each cycle
system.cpu.iq.issued_per_cycle::8                3440      0.21%    100.00% # Number of insts issued each cycle
system.cpu.iq.issued_per_cycle::overflows            0      0.00%    100.00% # Number of insts issued each cycle
system.cpu.iq.issued_per_cycle::min_value            0                       # Number of insts issued each cycle
system.cpu.iq.issued_per_cycle::max_value            8                       # Number of insts issued each cycle
system.cpu.iq.issued_per_cycle::total         1617773                       # Number of insts issued each cycle
system.cpu.iq.fu_full::No_OpClass                   0      0.00%      0.00% # attempts to use FU when none available
system.cpu.iq.fu_full::IntAlu                    1136     20.54%     20.54% # attempts to use FU when none available
system.cpu.iq.fu_full::IntMult                      0      0.00%     20.54% # attempts to use FU when none available
system.cpu.iq.fu_full::IntDiv                       0      0.00%     20.54% # attempts to use FU when none available
system.cpu.iq.fu_full::FloatAdd                  2595     46.93%     67.47% # attempts to use FU when none available
system.cpu.iq.fu_full::FloatCmp                     0      0.00%     67.47% # attempts to use FU when none available
system.cpu.iq.fu_full::FloatCvt                     0      0.00%     67.47% # attempts to use FU when none available
system.cpu.iq.fu_full::FloatMult                    0      0.00%     67.47% # attempts to use FU when none available
system.cpu.iq.fu_full::FloatMultAcc                 0      0.00%     67.47% # attempts to use FU when none available
system.cpu.iq.fu_full::FloatDiv                     0      0.00%     67.47% # attempts to use FU when none available
system.cpu.iq.fu_full::FloatMisc                    0      0.00%     67.47% # attempts to use FU when none available
system.cpu.iq.fu_full::FloatSqrt                    0      0.00%     67.47% # attempts to use FU when none available
system.cpu.iq.fu_full::SimdAdd                      0      0.00%     67.47% # attempts to use FU when none available
system.cpu.iq.fu_full::SimdAddAcc                   0      0.00%     67.47% # attempts to use FU when none available
system.cpu.iq.fu_full::SimdAlu                      0      0.00%     67.47% # attempts to use FU when none available
system.cpu.iq.fu_full::SimdCmp                      0      0.00%     67.47% # attempts to use FU when none available
system.cpu.iq.fu_full::SimdCvt                      0      0.00%     67.47% # attempts to use FU when none available
system.cpu.iq.fu_full::SimdMisc                     0      0.00%     67.47% # attempts to use FU when none available
system.cpu.iq.fu_full::SimdMult                     0      0.00%     67.47% # attempts to use FU when none available
system.cpu.iq.fu_full::SimdMultAcc                  0      0.00%     67.47% # attempts to use FU when none available
system.cpu.iq.fu_full::SimdShift                    0      0.00%     67.47% # attempts to use FU when none available
system.cpu.iq.fu_full::SimdShiftAcc                 0      0.00%     67.47% # attempts to use FU when none available
system.cpu.iq.fu_full::SimdSqrt                     0      0.00%     67.47% # attempts to use FU when none available
system.cpu.iq.fu_full::SimdFloatAdd                 0      0.00%     67.47% # attempts to use FU when none available
system.cpu.iq.fu_full::SimdFloatAlu                 0      0.00%     67.47% # attempts to use FU when none available
system.cpu.iq.fu_full::SimdFloatCmp                 0      0.00%     67.47% # attempts to use FU when none available
system.cpu.iq.fu_full::SimdFloatCvt                 0      0.00%     67.47% # attempts to use FU when none available
system.cpu.iq.fu_full::SimdFloatDiv                 0      0.00%     67.47% # attempts to use FU when none available
system.cpu.iq.fu_full::SimdFloatMisc                0      0.00%     67.47% # attempts to use FU when none available
system.cpu.iq.fu_full::SimdFloatMult                0      0.00%     67.47% # attempts to use FU when none available
system.cpu.iq.fu_full::SimdFloatMultAcc             0      0.00%     67.47% # attempts to use FU when none available
system.cpu.iq.fu_full::SimdFloatSqrt                0      0.00%     67.47% # attempts to use FU when none available
system.cpu.iq.fu_full::MemRead                     23      0.42%     67.88% # attempts to use FU when none available
system.cpu.iq.fu_full::MemWrite                    11      0.20%     68.08% # attempts to use FU when none available
system.cpu.iq.fu_full::FloatMemRead              1751     31.66%     99.75% # attempts to use FU when none available
system.cpu.iq.fu_full::FloatMemWrite               14      0.25%    100.00% # attempts to use FU when none available
system.cpu.iq.fu_full::IprAccess                    0      0.00%    100.00% # attempts to use FU when none available
system.cpu.iq.fu_full::InstPrefetch                 0      0.00%    100.00% # attempts to use FU when none available
system.cpu.iq.FU_type_0::No_OpClass             10632      0.20%      0.20% # Type of FU issued
system.cpu.iq.FU_type_0::IntAlu               2910596     56.04%     56.25% # Type of FU issued
system.cpu.iq.FU_type_0::IntMult                   13      0.00%     56.25% # Type of FU issued
system.cpu.iq.FU_type_0::IntDiv                   100      0.00%     56.25% # Type of FU issued
system.cpu.iq.FU_type_0::FloatAdd              867725     16.71%     72.96% # Type of FU issued
system.cpu.iq.FU_type_0::FloatCmp                   0      0.00%     72.96% # Type of FU issued
system.cpu.iq.FU_type_0::FloatCvt                   0      0.00%     72.96% # Type of FU issued
system.cpu.iq.FU_type_0::FloatMult                  0      0.00%     72.96% # Type of FU issued
system.cpu.iq.FU_type_0::FloatMultAcc               0      0.00%     72.96% # Type of FU issued
system.cpu.iq.FU_type_0::FloatDiv                   0      0.00%     72.96% # Type of FU issued
system.cpu.iq.FU_type_0::FloatMisc                  0      0.00%     72.96% # Type of FU issued
system.cpu.iq.FU_type_0::FloatSqrt                  0      0.00%     72.96% # Type of FU issued
system.cpu.iq.FU_type_0::SimdAdd                    0      0.00%     72.96% # Type of FU issued
system.cpu.iq.FU_type_0::SimdAddAcc                 0      0.00%     72.96% # Type of FU issued
system.cpu.iq.FU_type_0::SimdAlu                    0      0.00%     72.96% # Type of FU issued
system.cpu.iq.FU_type_0::SimdCmp                    0      0.00%     72.96% # Type of FU issued
system.cpu.iq.FU_type_0::SimdCvt                    0      0.00%     72.96% # Type of FU issued
system.cpu.iq.FU_type_0::SimdMisc                   0      0.00%     72.96% # Type of FU issued
system.cpu.iq.FU_type_0::SimdMult                   0      0.00%     72.96% # Type of FU issued
system.cpu.iq.FU_type_0::SimdMultAcc                0      0.00%     72.96% # Type of FU issued
system.cpu.iq.FU_type_0::SimdShift                  0      0.00%     72.96% # Type of FU issued
system.cpu.iq.FU_type_0::SimdShiftAcc               0      0.00%     72.96% # Type of FU issued
system.cpu.iq.FU_type_0::SimdSqrt                   0      0.00%     72.96% # Type of FU issued
system.cpu.iq.FU_type_0::SimdFloatAdd               0      0.00%     72.96% # Type of FU issued
system.cpu.iq.FU_type_0::SimdFloatAlu               0      0.00%     72.96% # Type of FU issued
system.cpu.iq.FU_type_0::SimdFloatCmp               0      0.00%     72.96% # Type of FU issued
system.cpu.iq.FU_type_0::SimdFloatCvt               0      0.00%     72.96% # Type of FU issued
system.cpu.iq.FU_type_0::SimdFloatDiv               0      0.00%     72.96% # Type of FU issued
system.cpu.iq.FU_type_0::SimdFloatMisc              0      0.00%     72.96% # Type of FU issued
system.cpu.iq.FU_type_0::SimdFloatMult              0      0.00%     72.96% # Type of FU issued
system.cpu.iq.FU_type_0::SimdFloatMultAcc            0      0.00%     72.96% # Type of FU issued
system.cpu.iq.FU_type_0::SimdFloatSqrt              0      0.00%     72.96% # Type of FU issued
system.cpu.iq.FU_type_0::MemRead                 3090      0.06%     73.02% # Type of FU issued
system.cpu.iq.FU_type_0::MemWrite               11864      0.23%     73.25% # Type of FU issued
system.cpu.iq.FU_type_0::FloatMemRead          995666     19.17%     92.42% # Type of FU issued
system.cpu.iq.FU_type_0::FloatMemWrite         393865      7.58%    100.00% # Type of FU issued
system.cpu.iq.FU_type_0::IprAccess                  0      0.00%    100.00% # Type of FU issued
system.cpu.iq.FU_type_0::InstPrefetch               0      0.00%    100.00% # Type of FU issued
system.cpu.iq.FU_type_0::total                5193551                       # Type of FU issued
system.cpu.iq.rate                           3.150306                       # Inst issue rate
system.cpu.iq.fu_busy_cnt                        5530                       # FU busy when requested
system.cpu.iq.fu_busy_rate                   0.001065                       # FU busy rate (busy events/executed inst)
system.cpu.iq.int_inst_queue_reads            7425250                       # Number of integer instruction queue reads
system.cpu.iq.int_inst_queue_writes           3005066                       # Number of integer instruction queue writes
system.cpu.iq.int_inst_queue_wakeup_accesses      2883537                       # Number of integer instruction queue wakeup accesses
system.cpu.iq.fp_inst_queue_reads             4585590                       # Number of floating instruction queue reads
system.cpu.iq.fp_inst_queue_writes            2357746                       # Number of floating instruction queue writes
system.cpu.iq.fp_inst_queue_wakeup_accesses      2256988                       # Number of floating instruction queue wakeup accesses
system.cpu.iq.vec_inst_queue_reads                  0                       # Number of vector instruction queue reads
system.cpu.iq.vec_inst_queue_writes                 0                       # Number of vector instruction queue writes
system.cpu.iq.vec_inst_queue_wakeup_accesses            0                       # Number of vector instruction queue wakeup accesses
system.cpu.iq.int_alu_accesses                2893514                       # Number of integer alu accesses
system.cpu.iq.fp_alu_accesses                 2294935                       # Number of floating point alu accesses
system.cpu.iq.vec_alu_accesses                      0                       # Number of vector alu accesses
system.cpu.iew.lsq.thread0.forwLoads             1137                       # Number of loads that had data forwarded from stores
system.cpu.iew.lsq.thread0.invAddrLoads             0                       # Number of loads ignored due to an invalid address
system.cpu.iew.lsq.thread0.squashedLoads        29051                       # Number of loads squashed
system.cpu.iew.lsq.thread0.ignoredResponses            2                       # Number of memory responses ignored because the instruction is squashed
system.cpu.iew.lsq.thread0.memOrderViolation           37                       # Number of memory ordering violations
system.cpu.iew.lsq.thread0.squashedStores         8438                       # Number of stores squashed
system.cpu.iew.lsq.thread0.invAddrSwpfs             0                       # Number of software prefetches ignored due to an invalid address
system.cpu.iew.lsq.thread0.blockedLoads             0                       # Number of blocked loads due to partial load-store forwarding
system.cpu.iew.lsq.thread0.rescheduledLoads            0                       # Number of loads that were rescheduled
system.cpu.iew.lsq.thread0.cacheBlocked          8250                       # Number of times an access to memory failed due to the cache being blocked
system.cpu.iew.iewIdleCycles                        0                       # Number of cycles IEW is idle
system.cpu.iew.iewSquashCycles                   7975                       # Number of cycles IEW is squashing
system.cpu.iew.iewBlockCycles                   13373                       # Number of cycles IEW is blocking
system.cpu.iew.iewUnblockCycles                 42043                       # Number of cycles IEW is unblocking
system.cpu.iew.iewDispatchedInsts             5227826                       # Number of instructions dispatched to IQ
system.cpu.iew.iewDispSquashedInsts               103                       # Number of squashed instructions skipped by dispatch
system.cpu.iew.iewDispLoadInsts                992262                       # Number of dispatched load instructions
system.cpu.iew.iewDispStoreInsts               413319                       # Number of dispatched store instructions
system.cpu.iew.iewDispNonSpecInsts                120                       # Number of dispatched non-speculative instructions
system.cpu.iew.iewIQFullEvents                     26                       # Number of times the IQ has become full, causing a stall
system.cpu.iew.iewLSQFullEvents                 41754                       # Number of times the LSQ has become full, causing a stall
system.cpu.iew.memOrderViolationEvents             37                       # Number of memory order violations
system.cpu.iew.predictedTakenIncorrect           6757                       # Number of branches that were predicted taken incorrectly
system.cpu.iew.predictedNotTakenIncorrect         1540                       # Number of branches that were predicted not taken incorrectly
system.cpu.iew.branchMispredicts                 8297                       # Number of branch mispredicts detected at execute
system.cpu.iew.iewExecutedInsts               5174804                       # Number of executed instructions
system.cpu.iew.iewExecLoadInsts                998391                       # Number of load instructions executed
system.cpu.iew.iewExecSquashedInsts             18747                       # Number of squashed instructions skipped in execute
system.cpu.iew.exec_swp                             0                       # number of swp insts executed
system.cpu.iew.exec_nop                             0                       # number of nop insts executed
system.cpu.iew.exec_refs                      1403895                       # number of memory reference insts executed
system.cpu.iew.exec_branches                   409538                       # Number of branches executed
system.cpu.iew.exec_stores                     405504                       # Number of stores executed
system.cpu.iew.exec_rate                     3.138935                       # Inst execution rate
system.cpu.iew.wb_sent                        5150504                       # cumulative count of insts sent to commit
system.cpu.iew.wb_count                       5140525                       # cumulative count of insts written-back
system.cpu.iew.wb_producers                   4279967                       # num instructions producing a value
system.cpu.iew.wb_consumers                   6602491                       # num instructions consuming a value
system.cpu.iew.wb_rate                       3.118142                       # insts written-back per cycle
system.cpu.iew.wb_fanout                     0.648235                       # average fanout of values written-back
system.cpu.commit.commitSquashedInsts          134963                       # The number of squashed insts skipped by commit
system.cpu.commit.commitNonSpecStalls              10                       # The number of times commit has been forced to stall to communicate backwards
system.cpu.commit.branchMispredicts              7941                       # The number of times a branch was mispredicted
system.cpu.commit.committed_per_cycle::samples      1596759                       # Number of insts commited each cycle
system.cpu.commit.committed_per_cycle::mean     3.189508                       # Number of insts commited each cycle
system.cpu.commit.committed_per_cycle::stdev     2.989538                       # Number of insts commited each cycle
system.cpu.commit.committed_per_cycle::underflows            0      0.00%      0.00% # Number of insts commited each cycle
system.cpu.commit.committed_per_cycle::0       530560     33.23%     33.23% # Number of insts commited each cycle
system.cpu.commit.committed_per_cycle::1       230368     14.43%     47.65% # Number of insts commited each cycle
system.cpu.commit.committed_per_cycle::2        26981      1.69%     49.34% # Number of insts commited each cycle
system.cpu.commit.committed_per_cycle::3        26659      1.67%     51.01% # Number of insts commited each cycle
system.cpu.commit.committed_per_cycle::4        28374      1.78%     52.79% # Number of insts commited each cycle
system.cpu.commit.committed_per_cycle::5       351716     22.03%     74.82% # Number of insts commited each cycle
system.cpu.commit.committed_per_cycle::6       179846     11.26%     86.08% # Number of insts commited each cycle
system.cpu.commit.committed_per_cycle::7          623      0.04%     86.12% # Number of insts commited each cycle
system.cpu.commit.committed_per_cycle::8       221632     13.88%    100.00% # Number of insts commited each cycle
system.cpu.commit.committed_per_cycle::overflows            0      0.00%    100.00% # Number of insts commited each cycle
system.cpu.commit.committed_per_cycle::min_value            0                       # Number of insts commited each cycle
system.cpu.commit.committed_per_cycle::max_value            8                       # Number of insts commited each cycle
system.cpu.commit.committed_per_cycle::total      1596759                       # Number of insts commited each cycle
system.cpu.commit.committedInsts              3021710                       # Number of instructions committed
system.cpu.commit.committedOps                5092876                       # Number of ops (including micro ops) committed
system.cpu.commit.swp_count                         0                       # Number of s/w prefetches committed
system.cpu.commit.refs                        1368092                       # Number of memory references committed
system.cpu.commit.loads                        963211                       # Number of loads committed
system.cpu.commit.membars                           0                       # Number of memory barriers committed
system.cpu.commit.branches                     405068                       # Number of branches committed
system.cpu.commit.vec_insts                         0                       # Number of committed Vector instructions.
system.cpu.commit.fp_insts                    2256302                       # Number of committed floating point instructions.
system.cpu.commit.int_insts                   4182456                       # Number of committed integer instructions.
system.cpu.commit.function_calls                  125                       # Number of function calls committed.
system.cpu.commit.op_class_0::No_OpClass         9843      0.19%      0.19% # Class of committed instruction
system.cpu.commit.op_class_0::IntAlu          2847354     55.91%     56.10% # Class of committed instruction
system.cpu.commit.op_class_0::IntMult               8      0.00%     56.10% # Class of committed instruction
system.cpu.commit.op_class_0::IntDiv               87      0.00%     56.10% # Class of committed instruction
system.cpu.commit.op_class_0::FloatAdd         867492     17.03%     73.14% # Class of committed instruction
system.cpu.commit.op_class_0::FloatCmp              0      0.00%     73.14% # Class of committed instruction
system.cpu.commit.op_class_0::FloatCvt              0      0.00%     73.14% # Class of committed instruction
system.cpu.commit.op_class_0::FloatMult             0      0.00%     73.14% # Class of committed instruction
system.cpu.commit.op_class_0::FloatMultAcc            0      0.00%     73.14% # Class of committed instruction
system.cpu.commit.op_class_0::FloatDiv              0      0.00%     73.14% # Class of committed instruction
system.cpu.commit.op_class_0::FloatMisc             0      0.00%     73.14% # Class of committed instruction
system.cpu.commit.op_class_0::FloatSqrt             0      0.00%     73.14% # Class of committed instruction
system.cpu.commit.op_class_0::SimdAdd               0      0.00%     73.14% # Class of committed instruction
system.cpu.commit.op_class_0::SimdAddAcc            0      0.00%     73.14% # Class of committed instruction
system.cpu.commit.op_class_0::SimdAlu               0      0.00%     73.14% # Class of committed instruction
system.cpu.commit.op_class_0::SimdCmp               0      0.00%     73.14% # Class of committed instruction
system.cpu.commit.op_class_0::SimdCvt               0      0.00%     73.14% # Class of committed instruction
system.cpu.commit.op_class_0::SimdMisc              0      0.00%     73.14% # Class of committed instruction
system.cpu.commit.op_class_0::SimdMult              0      0.00%     73.14% # Class of committed instruction
system.cpu.commit.op_class_0::SimdMultAcc            0      0.00%     73.14% # Class of committed instruction
system.cpu.commit.op_class_0::SimdShift             0      0.00%     73.14% # Class of committed instruction
system.cpu.commit.op_class_0::SimdShiftAcc            0      0.00%     73.14% # Class of committed instruction
system.cpu.commit.op_class_0::SimdSqrt              0      0.00%     73.14% # Class of committed instruction
system.cpu.commit.op_class_0::SimdFloatAdd            0      0.00%     73.14% # Class of committed instruction
system.cpu.commit.op_class_0::SimdFloatAlu            0      0.00%     73.14% # Class of committed instruction
system.cpu.commit.op_class_0::SimdFloatCmp            0      0.00%     73.14% # Class of committed instruction
system.cpu.commit.op_class_0::SimdFloatCvt            0      0.00%     73.14% # Class of committed instruction
system.cpu.commit.op_class_0::SimdFloatDiv            0      0.00%     73.14% # Class of committed instruction
system.cpu.commit.op_class_0::SimdFloatMisc            0      0.00%     73.14% # Class of committed instruction
system.cpu.commit.op_class_0::SimdFloatMult            0      0.00%     73.14% # Class of committed instruction
system.cpu.commit.op_class_0::SimdFloatMultAcc            0      0.00%     73.14% # Class of committed instruction
system.cpu.commit.op_class_0::SimdFloatSqrt            0      0.00%     73.14% # Class of committed instruction
system.cpu.commit.op_class_0::MemRead            1367      0.03%     73.16% # Class of committed instruction
system.cpu.commit.op_class_0::MemWrite          11049      0.22%     73.38% # Class of committed instruction
system.cpu.commit.op_class_0::FloatMemRead       961844     18.89%     92.27% # Class of committed instruction
system.cpu.commit.op_class_0::FloatMemWrite       393832      7.73%    100.00% # Class of committed instruction
system.cpu.commit.op_class_0::IprAccess             0      0.00%    100.00% # Class of committed instruction
system.cpu.commit.op_class_0::InstPrefetch            0      0.00%    100.00% # Class of committed instruction
system.cpu.commit.op_class_0::total           5092876                       # Class of committed instruction
system.cpu.commit.bw_lim_events                221632                       # number cycles where commit BW limit reached
system.cpu.rob.rob_reads                      6602966                       # The number of ROB reads
system.cpu.rob.rob_writes                    10476796                       # The number of ROB writes
system.cpu.timesIdled                             285                       # Number of times that the entire CPU went into an idle state and unscheduled itself
system.cpu.idleCycles                           30813                       # Total number of cycles that the CPU has spent unscheduled due to idling
system.cpu.committedInsts                     3021710                       # Number of Instructions Simulated
system.cpu.committedOps                       5092876                       # Number of Ops (including micro ops) Simulated
system.cpu.cpi                               0.545580                       # CPI: Cycles Per Instruction
system.cpu.cpi_total                         0.545580                       # CPI: Total CPI of All Threads
system.cpu.ipc                               1.832910                       # IPC: Instructions Per Cycle
system.cpu.ipc_total                         1.832910                       # IPC: Total IPC of All Threads
system.cpu.int_regfile_reads                  5292197                       # number of integer regfile reads
system.cpu.int_regfile_writes                 2458723                       # number of integer regfile writes
system.cpu.fp_regfile_reads                   3026022                       # number of floating regfile reads
system.cpu.fp_regfile_writes                  1872554                       # number of floating regfile writes
system.cpu.cc_regfile_reads                   2036885                       # number of cc regfile reads
system.cpu.cc_regfile_writes                  1627957                       # number of cc regfile writes
system.cpu.misc_regfile_reads                 2213236                       # number of misc regfile reads
system.cpu.dcache.tags.pwrStateResidencyTicks::UNDEFINED    824292500                       # Cumulative time (in ticks) in various power states
system.cpu.dcache.tags.replacements              3516                       # number of replacements
system.cpu.dcache.tags.tagsinuse           949.310885                       # Cycle average of tags in use
system.cpu.dcache.tags.total_refs             1388686                       # Total number of references to valid blocks.
system.cpu.dcache.tags.sampled_refs              4540                       # Sample count of references to valid blocks.
system.cpu.dcache.tags.avg_refs            305.877974                       # Average number of references to valid blocks.
system.cpu.dcache.tags.warmup_cycle            165500                       # Cycle when the warmup percentage was hit.
system.cpu.dcache.tags.occ_blocks::cpu.data   949.310885                       # Average occupied blocks per requestor
system.cpu.dcache.tags.occ_percent::cpu.data     0.927061                       # Average percentage of cache occupancy
system.cpu.dcache.tags.occ_percent::total     0.927061                       # Average percentage of cache occupancy
system.cpu.dcache.tags.occ_task_id_blocks::1024         1024                       # Occupied blocks per task id
system.cpu.dcache.tags.age_task_id_blocks_1024::0           72                       # Occupied blocks per task id
system.cpu.dcache.tags.age_task_id_blocks_1024::1          241                       # Occupied blocks per task id
system.cpu.dcache.tags.age_task_id_blocks_1024::2          711                       # Occupied blocks per task id
system.cpu.dcache.tags.occ_task_id_percent::1024            1                       # Percentage of cache occupancy per task id
system.cpu.dcache.tags.tag_accesses           2793076                       # Number of tag accesses
system.cpu.dcache.tags.data_accesses          2793076                       # Number of data accesses
system.cpu.dcache.pwrStateResidencyTicks::UNDEFINED    824292500                       # Cumulative time (in ticks) in various power states
system.cpu.dcache.ReadReq_hits::cpu.data       986897                       # number of ReadReq hits
system.cpu.dcache.ReadReq_hits::total          986897                       # number of ReadReq hits
system.cpu.dcache.WriteReq_hits::cpu.data       401787                       # number of WriteReq hits
system.cpu.dcache.WriteReq_hits::total         401787                       # number of WriteReq hits
system.cpu.dcache.demand_hits::cpu.data       1388684                       # number of demand (read+write) hits
system.cpu.dcache.demand_hits::total          1388684                       # number of demand (read+write) hits
system.cpu.dcache.overall_hits::cpu.data      1388684                       # number of overall hits
system.cpu.dcache.overall_hits::total         1388684                       # number of overall hits
system.cpu.dcache.ReadReq_misses::cpu.data         2490                       # number of ReadReq misses
system.cpu.dcache.ReadReq_misses::total          2490                       # number of ReadReq misses
system.cpu.dcache.WriteReq_misses::cpu.data         3094                       # number of WriteReq misses
system.cpu.dcache.WriteReq_misses::total         3094                       # number of WriteReq misses
system.cpu.dcache.demand_misses::cpu.data         5584                       # number of demand (read+write) misses
system.cpu.dcache.demand_misses::total           5584                       # number of demand (read+write) misses
system.cpu.dcache.overall_misses::cpu.data         5584                       # number of overall misses
system.cpu.dcache.overall_misses::total          5584                       # number of overall misses
system.cpu.dcache.ReadReq_miss_latency::cpu.data     74186500                       # number of ReadReq miss cycles
system.cpu.dcache.ReadReq_miss_latency::total     74186500                       # number of ReadReq miss cycles
system.cpu.dcache.WriteReq_miss_latency::cpu.data    175678998                       # number of WriteReq miss cycles
system.cpu.dcache.WriteReq_miss_latency::total    175678998                       # number of WriteReq miss cycles
system.cpu.dcache.demand_miss_latency::cpu.data    249865498                       # number of demand (read+write) miss cycles
system.cpu.dcache.demand_miss_latency::total    249865498                       # number of demand (read+write) miss cycles
system.cpu.dcache.overall_miss_latency::cpu.data    249865498                       # number of overall miss cycles
system.cpu.dcache.overall_miss_latency::total    249865498                       # number of overall miss cycles
system.cpu.dcache.ReadReq_accesses::cpu.data       989387                       # number of ReadReq accesses(hits+misses)
system.cpu.dcache.ReadReq_accesses::total       989387                       # number of ReadReq accesses(hits+misses)
system.cpu.dcache.WriteReq_accesses::cpu.data       404881                       # number of WriteReq accesses(hits+misses)
system.cpu.dcache.WriteReq_accesses::total       404881                       # number of WriteReq accesses(hits+misses)
system.cpu.dcache.demand_accesses::cpu.data      1394268                       # number of demand (read+write) accesses
system.cpu.dcache.demand_accesses::total      1394268                       # number of demand (read+write) accesses
system.cpu.dcache.overall_accesses::cpu.data      1394268                       # number of overall (read+write) accesses
system.cpu.dcache.overall_accesses::total      1394268                       # number of overall (read+write) accesses
system.cpu.dcache.ReadReq_miss_rate::cpu.data     0.002517                       # miss rate for ReadReq accesses
system.cpu.dcache.ReadReq_miss_rate::total     0.002517                       # miss rate for ReadReq accesses
system.cpu.dcache.WriteReq_miss_rate::cpu.data     0.007642                       # miss rate for WriteReq accesses
system.cpu.dcache.WriteReq_miss_rate::total     0.007642                       # miss rate for WriteReq accesses
system.cpu.dcache.demand_miss_rate::cpu.data     0.004005                       # miss rate for demand accesses
system.cpu.dcache.demand_miss_rate::total     0.004005                       # miss rate for demand accesses
system.cpu.dcache.overall_miss_rate::cpu.data     0.004005                       # miss rate for overall accesses
system.cpu.dcache.overall_miss_rate::total     0.004005                       # miss rate for overall accesses
system.cpu.dcache.ReadReq_avg_miss_latency::cpu.data 29793.775100                       # average ReadReq miss latency
system.cpu.dcache.ReadReq_avg_miss_latency::total 29793.775100                       # average ReadReq miss latency
system.cpu.dcache.WriteReq_avg_miss_latency::cpu.data 56780.542340                       # average WriteReq miss latency
system.cpu.dcache.WriteReq_avg_miss_latency::total 56780.542340                       # average WriteReq miss latency
system.cpu.dcache.demand_avg_miss_latency::cpu.data 44746.686605                       # average overall miss latency
system.cpu.dcache.demand_avg_miss_latency::total 44746.686605                       # average overall miss latency
system.cpu.dcache.overall_avg_miss_latency::cpu.data 44746.686605                       # average overall miss latency
system.cpu.dcache.overall_avg_miss_latency::total 44746.686605                       # average overall miss latency
system.cpu.dcache.blocked_cycles::no_mshrs         6095                       # number of cycles access was blocked
system.cpu.dcache.blocked_cycles::no_targets            0                       # number of cycles access was blocked
system.cpu.dcache.blocked::no_mshrs               898                       # number of cycles access was blocked
system.cpu.dcache.blocked::no_targets               0                       # number of cycles access was blocked
system.cpu.dcache.avg_blocked_cycles::no_mshrs     6.787305                       # average number of cycles each access was blocked
system.cpu.dcache.avg_blocked_cycles::no_targets          nan                       # average number of cycles each access was blocked
system.cpu.dcache.writebacks::writebacks         3416                       # number of writebacks
system.cpu.dcache.writebacks::total              3416                       # number of writebacks
system.cpu.dcache.ReadReq_mshr_hits::cpu.data         1042                       # number of ReadReq MSHR hits
system.cpu.dcache.ReadReq_mshr_hits::total         1042                       # number of ReadReq MSHR hits
system.cpu.dcache.demand_mshr_hits::cpu.data         1042                       # number of demand (read+write) MSHR hits
system.cpu.dcache.demand_mshr_hits::total         1042                       # number of demand (read+write) MSHR hits
system.cpu.dcache.overall_mshr_hits::cpu.data         1042                       # number of overall MSHR hits
system.cpu.dcache.overall_mshr_hits::total         1042                       # number of overall MSHR hits
system.cpu.dcache.ReadReq_mshr_misses::cpu.data         1448                       # number of ReadReq MSHR misses
system.cpu.dcache.ReadReq_mshr_misses::total         1448                       # number of ReadReq MSHR misses
system.cpu.dcache.WriteReq_mshr_misses::cpu.data         3094                       # number of WriteReq MSHR misses
system.cpu.dcache.WriteReq_mshr_misses::total         3094                       # number of WriteReq MSHR misses
system.cpu.dcache.demand_mshr_misses::cpu.data         4542                       # number of demand (read+write) MSHR misses
system.cpu.dcache.demand_mshr_misses::total         4542                       # number of demand (read+write) MSHR misses
system.cpu.dcache.overall_mshr_misses::cpu.data         4542                       # number of overall MSHR misses
system.cpu.dcache.overall_mshr_misses::total         4542                       # number of overall MSHR misses
system.cpu.dcache.ReadReq_mshr_miss_latency::cpu.data     37605500                       # number of ReadReq MSHR miss cycles
[...]
system.l2cache.tags.occ_percent::total       0.582493                       # Average percentage of cache occupancy
system.l2cache.tags.occ_task_id_blocks::1024         2763                       # Occupied blocks per task id
system.l2cache.tags.age_task_id_blocks_1024::0           75                       # Occupied blocks per task id
system.l2cache.tags.age_task_id_blocks_1024::1            4                       # Occupied blocks per task id
system.l2cache.tags.age_task_id_blocks_1024::2         2684                       # Occupied blocks per task id
system.l2cache.tags.occ_task_id_percent::1024     0.674561                       # Percentage of cache occupancy per task id
system.l2cache.tags.tag_accesses                74700                       # Number of tag accesses
system.l2cache.tags.data_accesses               74700                       # Number of data accesses
system.l2cache.pwrStateResidencyTicks::UNDEFINED    824292500                       # Cumulative time (in ticks) in various power states
system.l2cache.WritebackDirty_hits::writebacks         3416                       # number of WritebackDirty hits
system.l2cache.WritebackDirty_hits::total         3416                       # number of WritebackDirty hits
system.l2cache.UpgradeReq_hits::cpu.data            2                       # number of UpgradeReq hits
system.l2cache.UpgradeReq_hits::total               2                       # number of UpgradeReq hits
system.l2cache.ReadExReq_hits::cpu.data           984                       # number of ReadExReq hits
system.l2cache.ReadExReq_hits::total              984                       # number of ReadExReq hits
system.l2cache.ReadSharedReq_hits::cpu.inst           70                       # number of ReadSharedReq hits
system.l2cache.ReadSharedReq_hits::cpu.data         1313                       # number of ReadSharedReq hits
system.l2cache.ReadSharedReq_hits::total         1383                       # number of ReadSharedReq hits
system.l2cache.demand_hits::cpu.inst               70                       # number of demand (read+write) hits
system.l2cache.demand_hits::cpu.data             2297                       # number of demand (read+write) hits
system.l2cache.demand_hits::total                2367                       # number of demand (read+write) hits
system.l2cache.overall_hits::cpu.inst              70                       # number of overall hits
system.l2cache.overall_hits::cpu.data            2297                       # number of overall hits
system.l2cache.overall_hits::total               2367                       # number of overall hits
system.l2cache.ReadExReq_misses::cpu.data         2108                       # number of ReadExReq misses
system.l2cache.ReadExReq_misses::total           2108                       # number of ReadExReq misses
system.l2cache.ReadSharedReq_misses::cpu.inst          522                       # number of ReadSharedReq misses
system.l2cache.ReadSharedReq_misses::cpu.data          135                       # number of ReadSharedReq misses
system.l2cache.ReadSharedReq_misses::total          657                       # number of ReadSharedReq misses
system.l2cache.demand_misses::cpu.inst            522                       # number of demand (read+write) misses
system.l2cache.demand_misses::cpu.data           2243                       # number of demand (read+write) misses
system.l2cache.demand_misses::total              2765                       # number of demand (read+write) misses
system.l2cache.overall_misses::cpu.inst           522                       # number of overall misses
system.l2cache.overall_misses::cpu.data          2243                       # number of overall misses
system.l2cache.overall_misses::total             2765                       # number of overall misses
system.l2cache.ReadExReq_miss_latency::cpu.data    157202000                       # number of ReadExReq miss cycles
system.l2cache.ReadExReq_miss_latency::total    157202000                       # number of ReadExReq miss cycles
system.l2cache.ReadSharedReq_miss_latency::cpu.inst     41462000                       # number of ReadSharedReq miss cycles
system.l2cache.ReadSharedReq_miss_latency::cpu.data     20823000                       # number of ReadSharedReq miss cycles
system.l2cache.ReadSharedReq_miss_latency::total     62285000                       # number of ReadSharedReq miss cycles
system.l2cache.demand_miss_latency::cpu.inst     41462000                       # number of demand (read+write) miss cycles
system.l2cache.demand_miss_latency::cpu.data    178025000                       # number of demand (read+write) miss cycles
system.l2cache.demand_miss_latency::total    219487000                       # number of demand (read+write) miss cycles
system.l2cache.overall_miss_latency::cpu.inst     41462000                       # number of overall miss cycles
system.l2cache.overall_miss_latency::cpu.data    178025000                       # number of overall miss cycles
system.l2cache.overall_miss_latency::total    219487000                       # number of overall miss cycles
system.l2cache.WritebackDirty_accesses::writebacks         3416                       # number of WritebackDirty accesses(hits+misses)
system.l2cache.WritebackDirty_accesses::total         3416                       # number of WritebackDirty accesses(hits+misses)
system.l2cache.UpgradeReq_accesses::cpu.data            2                       # number of UpgradeReq accesses(hits+misses)
system.l2cache.UpgradeReq_accesses::total            2                       # number of UpgradeReq accesses(hits+misses)
system.l2cache.ReadExReq_accesses::cpu.data         3092                       # number of ReadExReq accesses(hits+misses)
system.l2cache.ReadExReq_accesses::total         3092                       # number of ReadExReq accesses(hits+misses)
system.l2cache.ReadSharedReq_accesses::cpu.inst          592                       # number of ReadSharedReq accesses(hits+misses)
system.l2cache.ReadSharedReq_accesses::cpu.data         1448                       # number of ReadSharedReq accesses(hits+misses)
system.l2cache.ReadSharedReq_accesses::total         2040                       # number of ReadSharedReq accesses(hits+misses)
system.l2cache.demand_accesses::cpu.inst          592                       # number of demand (read+write) accesses
system.l2cache.demand_accesses::cpu.data         4540                       # number of demand (read+write) accesses
system.l2cache.demand_accesses::total            5132                       # number of demand (read+write) accesses
system.l2cache.overall_accesses::cpu.inst          592                       # number of overall (read+write) accesses
system.l2cache.overall_accesses::cpu.data         4540                       # number of overall (read+write) accesses
system.l2cache.overall_accesses::total           5132                       # number of overall (read+write) accesses
system.l2cache.ReadExReq_miss_rate::cpu.data     0.681759                       # miss rate for ReadExReq accesses
system.l2cache.ReadExReq_miss_rate::total     0.681759                       # miss rate for ReadExReq accesses
system.l2cache.ReadSharedReq_miss_rate::cpu.inst     0.881757                       # miss rate for ReadSharedReq accesses
system.l2cache.ReadSharedReq_miss_rate::cpu.data     0.093232                       # miss rate for ReadSharedReq accesses
system.l2cache.ReadSharedReq_miss_rate::total     0.322059                       # miss rate for ReadSharedReq accesses
system.l2cache.demand_miss_rate::cpu.inst     0.881757                       # miss rate for demand accesses
system.l2cache.demand_miss_rate::cpu.data     0.494053                       # miss rate for demand accesses
system.l2cache.demand_miss_rate::total       0.538776                       # miss rate for demand accesses
system.l2cache.overall_miss_rate::cpu.inst     0.881757                       # miss rate for overall accesses
system.l2cache.overall_miss_rate::cpu.data     0.494053                       # miss rate for overall accesses
system.l2cache.overall_miss_rate::total      0.538776                       # miss rate for overall accesses
system.l2cache.ReadExReq_avg_miss_latency::cpu.data 74574.003795                       # average ReadExReq miss latency
system.l2cache.ReadExReq_avg_miss_latency::total 74574.003795                       # average ReadExReq miss latency
system.l2cache.ReadSharedReq_avg_miss_latency::cpu.inst 79429.118774                       # average ReadSharedReq miss latency
system.l2cache.ReadSharedReq_avg_miss_latency::cpu.data 154244.444444                       # average ReadSharedReq miss latency
system.l2cache.ReadSharedReq_avg_miss_latency::total 94802.130898                       # average ReadSharedReq miss latency
system.l2cache.demand_avg_miss_latency::cpu.inst 79429.118774                       # average overall miss latency
system.l2cache.demand_avg_miss_latency::cpu.data 79369.148462                       # average overall miss latency
system.l2cache.demand_avg_miss_latency::total 79380.470163                       # average overall miss latency
system.l2cache.overall_avg_miss_latency::cpu.inst 79429.118774                       # average overall miss latency
system.l2cache.overall_avg_miss_latency::cpu.data 79369.148462                       # average overall miss latency
system.l2cache.overall_avg_miss_latency::total 79380.470163                       # average overall miss latency
system.l2cache.blocked_cycles::no_mshrs             0                       # number of cycles access was blocked
system.l2cache.blocked_cycles::no_targets            0                       # number of cycles access was blocked
system.l2cache.blocked::no_mshrs                    0                       # number of cycles access was blocked
system.l2cache.blocked::no_targets                  0                       # number of cycles access was blocked
system.l2cache.avg_blocked_cycles::no_mshrs          nan                       # average number of cycles each access was blocked
system.l2cache.avg_blocked_cycles::no_targets          nan                       # average number of cycles each access was blocked
system.l2cache.ReadExReq_mshr_misses::cpu.data         2108                       # number of ReadExReq MSHR misses
system.l2cache.ReadExReq_mshr_misses::total         2108                       # number of ReadExReq MSHR misses
system.l2cache.ReadSharedReq_mshr_misses::cpu.inst          522                       # number of ReadSharedReq MSHR misses
system.l2cache.ReadSharedReq_mshr_misses::cpu.data          135                       # number of ReadSharedReq MSHR misses
system.l2cache.ReadSharedReq_mshr_misses::total          657                       # number of ReadSharedReq MSHR misses
system.l2cache.demand_mshr_misses::cpu.inst          522                       # number of demand (read+write) MSHR misses
system.l2cache.demand_mshr_misses::cpu.data         2243                       # number of demand (read+write) MSHR misses
system.l2cache.demand_mshr_misses::total         2765                       # number of demand (read+write) MSHR misses
system.l2cache.overall_mshr_misses::cpu.inst          522                       # number of overall MSHR misses
system.l2cache.overall_mshr_misses::cpu.data         2243                       # number of overall MSHR misses
system.l2cache.overall_mshr_misses::total         2765                       # number of overall MSHR misses
system.l2cache.ReadExReq_mshr_miss_latency::cpu.data    136122000                       # number of ReadExReq MSHR miss cycles
system.l2cache.ReadExReq_mshr_miss_latency::total    136122000                       # number of ReadExReq MSHR miss cycles
system.l2cache.ReadSharedReq_mshr_miss_latency::cpu.inst     36252000                       # number of ReadSharedReq MSHR miss cycles
system.l2cache.ReadSharedReq_mshr_miss_latency::cpu.data     19473000                       # number of ReadSharedReq MSHR miss cycles
system.l2cache.ReadSharedReq_mshr_miss_latency::total     55725000                       # number of ReadSharedReq MSHR miss cycles
system.l2cache.demand_mshr_miss_latency::cpu.inst     36252000                       # number of demand (read+write) MSHR miss cycles
system.l2cache.demand_mshr_miss_latency::cpu.data    155595000                       # number of demand (read+write) MSHR miss cycles
system.l2cache.demand_mshr_miss_latency::total    191847000                       # number of demand (read+write) MSHR miss cycles
system.l2cache.overall_mshr_miss_latency::cpu.inst     36252000                       # number of overall MSHR miss cycles
system.l2cache.overall_mshr_miss_latency::cpu.data    155595000                       # number of overall MSHR miss cycles
system.l2cache.overall_mshr_miss_latency::total    191847000                       # number of overall MSHR miss cycles
system.l2cache.ReadExReq_mshr_miss_rate::cpu.data     0.681759                       # mshr miss rate for ReadExReq accesses
system.l2cache.ReadExReq_mshr_miss_rate::total     0.681759                       # mshr miss rate for ReadExReq accesses
system.l2cache.ReadSharedReq_mshr_miss_rate::cpu.inst     0.881757                       # mshr miss rate for ReadSharedReq accesses
system.l2cache.ReadSharedReq_mshr_miss_rate::cpu.data     0.093232                       # mshr miss rate for ReadSharedReq accesses
system.l2cache.ReadSharedReq_mshr_miss_rate::total     0.322059                       # mshr miss rate for ReadSharedReq accesses
system.l2cache.demand_mshr_miss_rate::cpu.inst     0.881757                       # mshr miss rate for demand accesses
system.l2cache.demand_mshr_miss_rate::cpu.data     0.494053                       # mshr miss rate for demand accesses
system.l2cache.demand_mshr_miss_rate::total     0.538776                       # mshr miss rate for demand accesses
system.l2cache.overall_mshr_miss_rate::cpu.inst     0.881757                       # mshr miss rate for overall accesses
system.l2cache.overall_mshr_miss_rate::cpu.data     0.494053                       # mshr miss rate for overall accesses
system.l2cache.overall_mshr_miss_rate::total     0.538776                       # mshr miss rate for overall accesses
system.l2cache.ReadExReq_avg_mshr_miss_latency::cpu.data 64574.003795                       # average ReadExReq mshr miss latency
system.l2cache.ReadExReq_avg_mshr_miss_latency::total 64574.003795                       # average ReadExReq mshr miss latency
system.l2cache.ReadSharedReq_avg_mshr_miss_latency::cpu.inst 69448.275862                       # average ReadSharedReq mshr miss latency
system.l2cache.ReadSharedReq_avg_mshr_miss_latency::cpu.data 144244.444444                       # average ReadSharedReq mshr miss latency
system.l2cache.ReadSharedReq_avg_mshr_miss_latency::total 84817.351598                       # average ReadSharedReq mshr miss latency
system.l2cache.demand_avg_mshr_miss_latency::cpu.inst 69448.275862                       # average overall mshr miss latency
system.l2cache.demand_avg_mshr_miss_latency::cpu.data 69369.148462                       # average overall mshr miss latency
system.l2cache.demand_avg_mshr_miss_latency::total 69384.086799                       # average overall mshr miss latency
system.l2cache.overall_avg_mshr_miss_latency::cpu.inst 69448.275862                       # average overall mshr miss latency
system.l2cache.overall_avg_mshr_miss_latency::cpu.data 69369.148462                       # average overall mshr miss latency
system.l2cache.overall_avg_mshr_miss_latency::total 69384.086799                       # average overall mshr miss latency
system.membus.snoop_filter.tot_requests          2765                       # Total number of requests made to the snoop filter.
system.membus.snoop_filter.hit_single_requests            1                       # Number of requests hitting in the snoop filter with a single holder of the requested data.
system.membus.snoop_filter.hit_multi_requests            0                       # Number of requests hitting in the snoop filter with multiple (>1) holders of the requested data.
system.membus.snoop_filter.tot_snoops               0                       # Total number of snoops made to the snoop filter.
system.membus.snoop_filter.hit_single_snoops            0                       # Number of snoops hitting in the snoop filter with a single holder of the requested data.
system.membus.snoop_filter.hit_multi_snoops            0                       # Number of snoops hitting in the snoop filter with multiple (>1) holders of the requested data.
system.membus.pwrStateResidencyTicks::UNDEFINED    824292500                       # Cumulative time (in ticks) in various power states
system.membus.trans_dist::ReadResp                656                       # Transaction distribution
system.membus.trans_dist::CleanEvict                1                       # Transaction distribution
system.membus.trans_dist::ReadExReq              2108                       # Transaction distribution
system.membus.trans_dist::ReadExResp             2108                       # Transaction distribution
system.membus.trans_dist::ReadSharedReq           656                       # Transaction distribution
system.membus.pkt_count_system.l2cache.mem_side::system.mem_ctrl.port         5529                       # Packet count per connected master and slave (bytes)
system.membus.pkt_count_system.l2cache.mem_side::total         5529                       # Packet count per connected master and slave (bytes)
system.membus.pkt_count::total                   5529                       # Packet count per connected master and slave (bytes)
system.membus.pkt_size_system.l2cache.mem_side::system.mem_ctrl.port       176896                       # Cumulative packet size per connected master and slave (bytes)
system.membus.pkt_size_system.l2cache.mem_side::total       176896                       # Cumulative packet size per connected master and slave (bytes)
system.membus.pkt_size::total                  176896                       # Cumulative packet size per connected master and slave (bytes)
system.membus.snoops                                0                       # Total snoops (count)
system.membus.snoopTraffic                          0                       # Total snoop traffic (bytes)
system.membus.snoop_fanout::samples              2764                       # Request fanout histogram
system.membus.snoop_fanout::mean                    0                       # Request fanout histogram
system.membus.snoop_fanout::stdev                   0                       # Request fanout histogram
system.membus.snoop_fanout::underflows              0      0.00%      0.00% # Request fanout histogram
system.membus.snoop_fanout::0                    2764    100.00%    100.00% # Request fanout histogram
system.membus.snoop_fanout::1                       0      0.00%    100.00% # Request fanout histogram
system.membus.snoop_fanout::overflows               0      0.00%    100.00% # Request fanout histogram
system.membus.snoop_fanout::min_value               0                       # Request fanout histogram
system.membus.snoop_fanout::max_value               0                       # Request fanout histogram
system.membus.snoop_fanout::total                2764                       # Request fanout histogram
system.membus.reqLayer2.occupancy             1382500                       # Layer occupancy (ticks)
system.membus.reqLayer2.utilization               0.2                       # Layer utilization (%)
system.membus.respLayer0.occupancy            7541000                       # Layer occupancy (ticks)
system.membus.respLayer0.utilization              0.9                       # Layer utilization (%)

---------- End Simulation Statistics   ----------
